/*--------------------------------*- C++ -*----------------------------------*\
| =========                 |                                                 |
| \\      /  F ield         | OpenFOAM: The Open Source CFD Toolbox           |
|  \\    /   O peration     | Version:  2.2.2                                 |
|   \\  /    A nd           | Web:      www.OpenFOAM.org                      |
|    \\/     M anipulation  |                                                 |
\*---------------------------------------------------------------------------*/
FoamFile
{
    version     2.0;
    format      binary;
    class       polyBoundaryMesh;
    location    "constant/polyMesh";
    object      boundary;
}
// * * * * * * * * * * * * * * * * * * * * * * * * * * * * * * * * * * * * * //

5
(
    frontAndBackPlanes
    {
        type            empty;
        inGroups        1(empty);
        nFaces          132962;
        startFace       129444;
    }
    inlet
    {
        type            patch;
        nFaces          19;
        startFace       262406;
    }
    lowerWall
    {
        type            wall;
        inGroups        1(wall);
        nFaces          3499;
        startFace       262425;
    }
    outlet
    {
        type            patch;
        nFaces          19;
        startFace       265924;
    }
    upperWall
    {
        type            wall;
        inGroups        1(wall);
        nFaces          3499;
        startFace       265943;
    }
)

// ************************************************************************* //
